@!IC, SBASE,REV,XFRRAT,NXFRAT,BASFRQ
0,   100.00, 34,     1,     1, 50.00     / PSS(R)E-34.9    SUN, JUN 22 2025   9:37
GR 2024-2028 - RESTO VERANO 2025/26.
EDENOR=6307 MW. GBA=11573 MW. SADI=32663 MW.
GENERAL, THRSHZ=0.0001, PQBRAK=0.7, BLOWUP=5.0
GAUSS, ITMX=100, ACCP=1.6, ACCQ=1.6, ACCM=1.0, TOL=0.0001
NEWTON, ITMXN=200, ACCN=1.0, TOLN=0.1, VCTOLQ=0.1, VCTOLV=0.00001, DVLIM=0.99, NDVFCT=0.99
ADJUST, ADJTHR=0.005, ACCTAP=1.0, TAPLIM=0.05, SWVBND=100.0, MXTPSS=99, MXSWIM=10
TYSL, ITMXTY=20, ACCTY=1.0, TOLTY=0.00001
RATING, 1, "RATE1 ", "RATING SET 1                    "
RATING, 2, "RATE2 ", "RATING SET 2                    "
RATING, 3, "RATE3 ", "RATING SET 3                    "
RATING, 4, "RATE4 ", "RATING SET 4                    "
RATING, 5, "RATE5 ", "RATING SET 5                    "
RATING, 6, "RATE6 ", "RATING SET 6                    "
RATING, 7, "RATE7 ", "RATING SET 7                    "
RATING, 8, "RATE8 ", "RATING SET 8                    "
RATING, 9, "RATE9 ", "RATING SET 9                    "
RATING,10, "RATE10", "RATING SET 10                   "
RATING,11, "RATE11", "RATING SET 11                   "
RATING,12, "RATE12", "RATING SET 12                   "
0 / END OF SYSTEM-WIDE DATA, BEGIN BUS DATA
@!   I,'NAME        ', BASKV, IDE,AREA,ZONE,OWNER, VM,        VA,    NVHI,   NVLO,   EVHI,   EVLO
  3008,'OSCARSMI    ', 500.0000,1,   4,   1,  10,1.00000,   0.0000,1.10000,0.90000,1.10000,0.90000
  3014,'O.SMITH     ', 500.0000,1,   4,  42,   1,1.00000,   0.0000,1.10000,0.90000,1.10000,0.90000
  3111,'O.SMITH     ', 220.0000,1,   4,   7,   1,1.00000,   0.0000,1.10000,0.90000,1.10000,0.90000
  3114,'PICASA1     ', 220.0000,1,   4,   7,   1,1.00947, -16.6809,1.10000,0.90000,1.10000,0.90000
  3116,'PICASA2     ', 220.0000,1,   4,   7,   1,0.99588, -18.2059,1.10000,0.90000,1.10000,0.90000
  3120,'1RODR220    ', 220.0000,1,   4,   7,   1,1.00791, -24.5799,1.10000,0.90000,1.10000,0.90000
  3122,'2RODR220    ', 220.0000,1,   4,   7,   1,1.01000, -25.1049,1.10000,0.90000,1.10000,0.90000
  3123,'OSCARSMI    ', 220.0000,1,   4,   7,   1,1.00000,   0.0000,1.10000,0.90000,1.10000,0.90000
  3124,'1CASA220    ', 220.0000,1,   4,   7,   1,1.00804, -16.8507,1.10000,0.90000,1.10000,0.90000
  3126,'2CASA220    ', 220.0000,1,   4,   7,   1,0.99447, -18.3330,1.10000,0.90000,1.10000,0.90000
  3129,'PANTA.220   ', 220.0000,1,   4,   7,   1,1.00095, -17.6864,1.10000,0.90000,1.10000,0.90000
  3130,'1MALA220    ', 220.0000,1,   4,   7,   1,0.99195, -31.0701,1.10000,0.90000,1.10000,0.90000
  3131,'PI.PANT1    ', 220.0000,1,   4,   7,   1,1.01454, -15.9915,1.10000,0.90000,1.10000,0.90000
  3132,'2MALA220    ', 220.0000,1,   4,   7,   1,1.02083, -13.4477,1.10000,0.90000,1.10000,0.90000
  3133,'PI.PANT2    ', 220.0000,1,   4,   7,   1,1.00095, -17.6864,1.10000,0.90000,1.10000,0.90000
  3134,'1MATH220    ', 220.0000,1,   4,   7,   1,0.99111, -28.1146,1.10000,0.90000,1.10000,0.90000
  3135,'PI-PACH     ', 220.0000,1,   4,   7,   1,0.98160, -30.4149,1.10000,0.90000,1.10000,0.90000
  3136,'PI-PACH     ', 220.0000,1,   4,   7,   1,0.98153, -30.4398,1.10000,0.90000,1.10000,0.90000
  3137,'1ZAPA220    ', 220.0000,1,   4,   7,   1,1.00522, -16.7659,1.10000,0.90000,1.10000,0.90000
  3138,'MORON220    ', 220.0000,1,   4,   7,   1,0.99635, -28.8254,1.10000,0.90000,1.10000,0.90000
  3139,'2ZAPA220    ', 220.0000,1,   4,   7,   1,1.00799, -16.1486,1.10000,0.90000,1.10000,0.90000
  3140,'1P-TLAGO    ', 220.0000,1,   4,   7,   1,1.00000,   0.0000,1.10000,0.90000,1.10000,0.90000
  3141,'2P-TLAGO    ', 220.0000,1,   4,   7,   1,1.00000,   0.0000,1.10000,0.90000,1.10000,0.90000
  3142,'PIMAL220    ', 220.0000,1,   4,   7,   1,0.99242, -30.8508,1.10000,0.90000,1.10000,0.90000
  3143,'1PITA220    ', 220.0000,1,   4,   7,   1,0.98080, -30.6046,1.10000,0.90000,1.10000,0.90000
  3147,'2PITA220    ', 220.0000,1,   4,   7,   1,0.98073, -30.6317,1.10000,0.90000,1.10000,0.90000
  3148,'1P-TUNAS    ', 220.0000,1,   4,   7,   1,0.98133, -30.4775,1.10000,0.90000,1.10000,0.90000
  3149,'2P-TUNAS    ', 220.0000,1,   4,   7,   1,0.98125, -30.5032,1.10000,0.90000,1.10000,0.90000
  3150,'COLEG220    ', 220.0000,1,   4,   7,   1,0.99365, -31.3709,1.10000,0.90000,1.10000,0.90000
  3151,'1TALA220    ', 220.0000,1,   4,   7,   1,0.97972, -30.8339,1.10000,0.90000,1.10000,0.90000
  3152,'2TALA220    ', 220.0000,1,   4,   7,   1,0.97963, -30.8638,1.10000,0.90000,1.10000,0.90000
  3157,'PI1-EDIS    ', 220.0000,1,   4,   7,   1,1.00000,   0.0000,1.10000,0.90000,1.10000,0.90000
  3159,'PI-1EDIS    ', 220.0000,1,   4,   7,   1,1.00000,   0.0000,1.10000,0.90000,1.10000,0.90000
  3160,'PNUE.GEN    ', 220.0000,1,   4,   7,   1,0.99693, -31.0041,1.10000,0.90000,1.10000,0.90000
  3162,'EDISON      ', 220.0000,1,   4,   7,   1,0.98926, -31.7474,1.10000,0.90000,1.10000,0.90000
  3163,'PIEDISON    ', 220.0000,1,   4,   7,   1,1.00000,   0.0000,1.10000,0.90000,1.10000,0.90000
  3164,'EDISON      ', 220.0000,1,   4,   7,   1,1.00000,   0.0000,1.10000,0.90000,1.10000,0.90000
  3167,'JCPAZ.220   ', 220.0000,1,   4,   7,   1,1.00245, -26.5208,1.10000,0.90000,1.10000,0.90000
  3169,'2JCPAZ.220  ', 220.0000,1,   4,   7,   1,1.00245, -26.5208,1.10000,0.90000,1.10000,0.90000
  3193,'TRUJUI      ', 220.0000,1,   4,   7,   1,1.00026, -27.6526,1.10000,0.90000,1.10000,0.90000
  3194,'2TRUJUI     ', 220.0000,1,   4,   7,   1,0.99943, -27.4803,1.10000,0.90000,1.10000,0.90000
  3196,'1MALVINA    ', 132.0000,1,   4,   7,   1,1.01060, -27.0184,1.10000,0.90000,1.10000,0.90000
  3197,'3MALVINA    ', 132.0000,1,   4,   7,   1,0.99854, -25.3071,1.10000,0.90000,1.10000,0.90000
  3198,'1CATONAS    ', 132.0000,1,   4,   7,   1,0.99629, -28.1610,1.10000,0.90000,1.10000,0.90000
  3199,'2CATONAS    ', 132.0000,1,   4,   7,   1,0.99899, -27.5110,1.10000,0.90000,1.10000,0.90000
  3202,'2ALTOS      ', 132.0000,1,   4,   7,   1,1.01163, -23.5195,1.10000,0.90000,1.10000,0.90000
  3207,'ALTOS       ', 132.0000,1,   4,   7,   1,1.01063, -23.5791,1.10000,0.90000,1.10000,0.90000
  3210,'AGRONMIA    ', 132.0000,1,   4,   7,   1,1.01691, -39.9719,1.10000,0.90000,1.10000,0.90000
  3212,'1AGRONOM    ', 132.0000,1,   4,   7,   1,1.02697, -37.8181,1.10000,0.90000,1.10000,0.90000
  3213,'AUSTRIA1    ', 132.0000,1,   4,   7,   1,1.02853, -37.7889,1.10000,0.90000,1.10000,0.90000
  3215,'URQUIZA     ', 132.0000,1,   4,   7,   1,1.01787, -39.8618,1.10000,0.90000,1.10000,0.90000
  3219,'P.NUE CE    ', 132.0000,1,   4,   7,   1,1.02802, -17.1486,1.10000,0.90000,1.10000,0.90000
  3224,'1BANCALA    ', 132.0000,1,   4,   7,   1,1.01636, -38.1992,1.10000,0.90000,1.10000,0.90000
  3228,'1BENAVID    ', 132.0000,1,   4,   7,   1,1.00586, -33.8029,1.10000,0.90000,1.10000,0.90000
  3229,'MASCHW1     ', 132.0000,1,   4,   7,   1,1.01106, -33.1674,1.10000,0.90000,1.10000,0.90000
  3232,'1BOULOGN    ', 132.0000,1,   4,   7,   1,1.01930, -38.5190,1.10000,0.90000,1.10000,0.90000
  3234,'MARTINEZ    ', 132.0000,1,   4,   7,   1,1.02349, -38.7085,1.10000,0.90000,1.10000,0.90000
  3235,'AEROCLUB    ', 132.0000,1,   4,   7,   1,1.02371, -24.1680,1.10000,0.90000,1.10000,0.90000
  3237,'2MARTINEZ   ', 132.0000,1,   4,   7,   1,1.02343, -38.7054,1.10000,0.90000,1.10000,0.90000
  3250,'1CASEROS    ', 132.0000,1,   4,   7,   1,1.01725, -34.8466,1.10000,0.90000,1.10000,0.90000
  3251,'SEVEL       ', 132.0000,1,   4,   7,   1,1.01820, -34.7850,1.10000,0.90000,1.10000,0.90000
  3252,'1CASTELA    ', 132.0000,1,   4,   7,   1,1.01648, -34.8944,1.10000,0.90000,1.10000,0.90000
  3258,'CIUDADEL    ', 132.0000,1,   4,   7,   1,1.01594, -23.9247,1.10000,0.90000,1.10000,0.90000
  3259,'2COGHLAN    ', 132.0000,1,   4,   7,   1,1.02681, -38.0473,1.10000,0.90000,1.10000,0.90000
  3260,'1COGHLAN    ', 132.0000,1,   4,   7,   1,1.02707, -37.9885,1.10000,0.90000,1.10000,0.90000
  3262,'COLEG.RO    ', 132.0000,1,   4,   7,   1,1.02705, -38.0032,1.10000,0.90000,1.10000,0.90000
  3263,'SAAVEDRA    ', 132.0000,1,   4,   7,   1,1.02015, -39.6193,1.10000,0.90000,1.10000,0.90000
  3264,'1COLEGIA    ', 132.0000,1,   4,   7,   1,1.02072, -39.5326,1.10000,0.90000,1.10000,0.90000
  3265,'VIDAL       ', 132.0000,1,   4,   7,   1,1.01995, -39.6118,1.10000,0.90000,1.10000,0.90000
  3274,'1DELVISO    ', 132.0000,1,   4,   7,   1,1.01380, -32.2833,1.10000,0.90000,1.10000,0.90000
  3275,'2DELVISO    ', 132.0000,1,   4,   7,   1,1.01502, -32.1814,1.10000,0.90000,1.10000,0.90000
  3276,'1PIVISO     ', 132.0000,1,   4,   7,   1,1.01478, -32.1916,1.10000,0.90000,1.10000,0.90000
  3277,'2PIVISO     ', 132.0000,1,   4,   7,   1,1.01582, -32.1046,1.10000,0.90000,1.10000,0.90000
  3290,'2EDISON     ', 132.0000,1,   4,   7,   1,1.02081, -39.5377,1.10000,0.90000,1.10000,0.90000
  3291,'1PITORTUG   ', 132.0000,1,   4,   7,   1,1.01656, -32.0321,1.10000,0.90000,1.10000,0.90000
  3292,'1EDISON     ', 132.0000,1,   4,   7,   1,1.02388, -38.7277,1.10000,0.90000,1.10000,0.90000
  3293,'1TORTUGU    ', 132.0000,1,   4,   7,   1,1.01610, -32.0779,1.10000,0.90000,1.10000,0.90000
  3295,'PIJCPAZ682  ', 132.0000,1,   4,   7,   1,1.01772, -31.9367,1.10000,0.90000,1.10000,0.90000
  3297,'2TORTUGU    ', 132.0000,1,   4,   7,   1,1.01680, -32.0319,1.10000,0.90000,1.10000,0.90000
  3298,'P.UNIDAS    ', 132.0000,1,   4,   7,   1,1.01911, -23.7051,1.10000,0.90000,1.10000,0.90000
  3299,'P.UNIDAS    ', 132.0000,1,   4,   7,   1,1.01911, -23.7051,1.10000,0.90000,1.10000,0.90000
  3301,'TESEI       ', 132.0000,1,   4,   7,   1,1.00000,   0.0000,1.10000,0.90000,1.10000,0.90000
  3302,'PILAR13     ', 132.0000,1,   4,   7,   1,1.01207, -32.8558,1.10000,0.90000,1.10000,0.90000
  3303,'2PILAR13    ', 132.0000,1,   4,   7,   1,1.01207, -32.8558,1.10000,0.90000,1.10000,0.90000
  3304,'ANIVERSARIO ', 132.0000,1,   4,   7,   1,1.02503, -38.7590,1.10000,0.90000,1.10000,0.90000
  3305,'2TESEI      ', 132.0000,1,   4,   7,   1,1.00000,   0.0000,1.10000,0.90000,1.10000,0.90000
  3307,'AGUAS       ', 132.0000,1,   4,   7,   1,1.02617, -38.6722,1.10000,0.90000,1.10000,0.90000
  3309,'TECNOPOLIS  ', 132.0000,1,   4,   7,   1,1.02712, -37.9252,1.10000,0.90000,1.10000,0.90000
  3310,'1FORD       ', 132.0000,1,   4,   7,   1,1.01232, -37.8778,1.10000,0.90000,1.10000,0.90000
  3313,'MORENO      ', 132.0000,1,   4,   7,   1,1.00002, -25.2047,1.10000,0.90000,1.10000,0.90000
  3314,'1G.CATAN    ', 132.0000,1,   4,   7,   1,1.01168, -23.2607,1.10000,0.90000,1.10000,0.90000
  3315,'2MORENO     ', 132.0000,1,   4,   7,   1,0.99987, -25.2365,1.10000,0.90000,1.10000,0.90000
  3316,'3G.CATAN    ', 132.0000,1,   4,   7,   1,1.01051, -23.3282,1.10000,0.90000,1.10000,0.90000
  3317,'EL CRUCE    ', 132.0000,1,   4,   7,   1,1.00000,   0.0000,1.10000,0.90000,1.10000,0.90000
  3323,'EL CRUCE    ', 132.0000,1,   4,   7,   1,1.00000,   0.0000,1.10000,0.90000,1.10000,0.90000
  3324,'1GUEMES     ', 132.0000,1,   4,   7,   1,1.02679, -37.9792,1.10000,0.90000,1.10000,0.90000
  3325,'POLLEDO     ', 132.0000,1,   4,   7,   1,1.02556, -23.8616,1.10000,0.90000,1.10000,0.90000
  3333,'2RODR132    ', 132.0000,1,   4,   7,   1,1.01776, -26.9418,1.10000,0.90000,1.10000,0.90000
  3334,'1HURLING    ', 132.0000,1,   4,   7,   1,1.02026, -34.5962,1.10000,0.90000,1.10000,0.90000
  3335,'LIBERTAD    ', 132.0000,1,   4,   7,   1,1.00521, -23.7080,1.10000,0.90000,1.10000,0.90000
  3336,'2LIBERTAD   ', 132.0000,1,   4,   7,   1,1.00522, -23.7069,1.10000,0.90000,1.10000,0.90000
  3337,'RODR132     ', 132.0000,1,   4,   7,   1,1.01776, -26.9418,1.10000,0.90000,1.10000,0.90000
  3338,'CASANOVA    ', 132.0000,1,   4,   7,   1,1.02127, -23.5025,1.10000,0.90000,1.10000,0.90000
  3339,'1MPAZ       ', 132.0000,1,   4,   7,   1,1.00511, -21.8937,1.10000,0.90000,1.10000,0.90000
  3341,'PONTEV1     ', 132.0000,1,   4,   7,   1,1.00460, -23.3066,1.10000,0.90000,1.10000,0.90000
  3342,'1ITUZAIN    ', 132.0000,1,   4,   7,   1,0.99615, -24.7812,1.10000,0.90000,1.10000,0.90000
  3343,'PANTANOSA   ', 132.0000,1,   4,   7,   1,1.00306, -23.4905,1.10000,0.90000,1.10000,0.90000
  3344,'2ITUZAIN    ', 132.0000,1,   4,   7,   1,0.99619, -24.7726,1.10000,0.90000,1.10000,0.90000
  3345,'1PI-ITUZ    ', 132.0000,1,   4,   7,   1,0.99838, -24.5245,1.10000,0.90000,1.10000,0.90000
  3346,'2PI-ITUZ    ', 132.0000,1,   4,   7,   1,0.99848, -24.5147,1.10000,0.90000,1.10000,0.90000
  3349,'1ZAPPALO    ', 132.0000,1,   4,   7,   1,1.00744, -23.4227,1.10000,0.90000,1.10000,0.90000
  3350,'1MATANZA    ', 132.0000,1,   4,   7,   1,1.02532, -26.2450,1.10000,0.90000,1.10000,0.90000
  3351,'2MATANZA    ', 132.0000,1,   4,   7,   1,1.01923, -23.7030,1.10000,0.90000,1.10000,0.90000
  3359,'MANZONE     ', 132.0000,1,   4,   7,   1,1.01348, -27.4075,1.10000,0.90000,1.10000,0.90000
  3360,'1LA REJA    ', 132.0000,1,   4,   7,   1,0.99948, -25.0677,1.10000,0.90000,1.10000,0.90000
  3361,'2LA REJA    ', 132.0000,1,   4,   7,   1,0.99942, -25.0980,1.10000,0.90000,1.10000,0.90000
  3362,'1PASOREY    ', 132.0000,1,   4,   7,   1,1.00011, -24.7986,1.10000,0.90000,1.10000,0.90000
  3363,'2PASOREY    ', 132.0000,1,   4,   7,   1,0.99992, -24.8570,1.10000,0.90000,1.10000,0.90000
  3364,'1LIBERTA    ', 132.0000,1,   4,   7,   1,1.02601, -38.6590,1.10000,0.90000,1.10000,0.90000
  3367,'2SUAREZ     ', 132.0000,1,   4,   7,   1,1.00725, -20.5741,1.10000,0.90000,1.10000,0.90000
  3371,'MALAVER     ', 132.0000,1,   4,   7,   1,1.00893, -20.3596,1.10000,0.90000,1.10000,0.90000
  3372,'MALAMARR    ', 132.0000,1,   4,   7,   1,1.02920, -37.5663,1.10000,0.90000,1.10000,0.90000
  3373,'1SUAREZ     ', 132.0000,1,   4,   7,   1,1.00718, -20.5889,1.10000,0.90000,1.10000,0.90000
  3374,'1MATHEU     ', 132.0000,1,   4,   7,   1,1.02240, -31.9673,1.10000,0.90000,1.10000,0.90000
  3375,'1DERQUI     ', 132.0000,1,   4,   7,   1,1.01434, -32.5761,1.10000,0.90000,1.10000,0.90000
  3376,'2MATHEU     ', 132.0000,1,   4,   7,   1,1.01396, -32.2263,1.10000,0.90000,1.10000,0.90000
  3377,'1ELPINO     ', 132.0000,1,   4,   7,   1,1.02127, -21.3215,1.10000,0.90000,1.10000,0.90000
  3378,'M.BENZ      ', 132.0000,1,   4,   7,   1,1.02127, -21.3215,1.10000,0.90000,1.10000,0.90000
  3379,'2ELPINO     ', 132.0000,1,   4,   7,   1,1.02179, -21.2976,1.10000,0.90000,1.10000,0.90000
  3380,'1MERLO      ', 132.0000,1,   4,   7,   1,1.00358, -23.9033,1.10000,0.90000,1.10000,0.90000
  3382,'MIGUELET    ', 132.0000,1,   4,   7,   1,1.02779, -37.7114,1.10000,0.90000,1.10000,0.90000
  3383,'M.BENZ1     ', 132.0000,1,   4,   7,   1,1.02149, -21.3469,1.10000,0.90000,1.10000,0.90000
  3386,'1MORON      ', 132.0000,1,   4,   7,   1,1.02239, -34.4500,1.10000,0.90000,1.10000,0.90000
  3387,'2MORON      ', 132.0000,1,   4,   7,   1,0.99431, -24.8900,1.10000,0.90000,1.10000,0.90000
  3388,'1MUNRO      ', 132.0000,1,   4,   7,   1,1.02774, -37.8360,1.10000,0.90000,1.10000,0.90000
  3389,'3MORON      ', 132.0000,1,   4,   7,   1,1.02239, -34.4500,1.10000,0.90000,1.10000,0.90000
  3390,'1NOGUES     ', 132.0000,1,   4,   7,   1,1.01829, -35.1411,1.10000,0.90000,1.10000,0.90000
  3391,'2NOGUES     ', 132.0000,1,   4,   7,   1,1.01804, -35.1341,1.10000,0.90000,1.10000,0.90000
  3392,'MIGUELT2    ', 132.0000,1,   4,   7,   1,1.02779, -37.7105,1.10000,0.90000,1.10000,0.90000
  3394,'N.PUE CE    ', 132.0000,1,   4,   7,   1,1.02799, -17.1537,1.10000,0.90000,1.10000,0.90000
  3395,'2MUNRO      ', 132.0000,1,   4,   7,   1,1.02837, -37.6840,1.10000,0.90000,1.10000,0.90000
  3396,'N.PUE VI    ', 132.0000,1,   4,   7,   1,1.02900, -38.3761,1.10000,0.90000,1.10000,0.90000
  3397,'SAN ALBERTO ', 132.0000,1,   4,   7,   1,0.99770, -24.6169,1.10000,0.90000,1.10000,0.90000
  3398,'CENTE.BA    ', 132.0000,1,   4,   8,   1,1.02630, -19.5071,1.10000,0.90000,1.10000,0.90000
  3399,'CENTEN2     ', 132.0000,1,   4,   8,   1,1.02419, -19.6787,1.10000,0.90000,1.10000,0.90000
  3405,'SAN ALBERTO2', 132.0000,1,   4,   7,   1,0.99798, -24.5825,1.10000,0.90000,1.10000,0.90000
  3411,'1GAONA      ', 132.0000,1,   4,   7,   1,0.99833, -25.2967,1.10000,0.90000,1.10000,0.90000
  3412,'2GAONA      ', 132.0000,1,   4,   7,   1,0.99831, -25.3097,1.10000,0.90000,1.10000,0.90000
  3420,'1PILAR      ', 132.0000,1,   4,   7,   1,1.01062, -27.6553,1.10000,0.90000,1.10000,0.90000
  3427,'PARQUE      ', 132.0000,1,   4,   7,   1,1.00750, -27.8302,1.10000,0.90000,1.10000,0.90000
  3428,'P.N.GEN     ', 132.0000,1,   4,   7,   1,1.02900, -26.0534,1.10000,0.90000,1.10000,0.90000
  3430,'P.NUE RO    ', 132.0000,1,   4,   7,   1,1.02900, -37.6994,1.10000,0.90000,1.10000,0.90000
  3431,'MELO        ', 132.0000,1,   4,   7,   1,1.02764, -37.9425,1.10000,0.90000,1.10000,0.90000
  3434,'1R.MEJIA    ', 132.0000,1,   4,   7,   1,1.01655, -34.8904,1.10000,0.90000,1.10000,0.90000
  3435,'LUZRIAGA    ', 132.0000,1,   4,   7,   1,1.01742, -23.8484,1.10000,0.90000,1.10000,0.90000
  3436,'2R.MEJIA    ', 132.0000,1,   4,   7,   1,1.01687, -23.8856,1.10000,0.90000,1.10000,0.90000
  3439,'2PILAR      ', 132.0000,1,   4,   7,   1,1.01207, -32.8558,1.10000,0.90000,1.10000,0.90000
  3444,'1ROTONDA    ', 132.0000,1,   4,   7,   1,1.02838, -37.6341,1.10000,0.90000,1.10000,0.90000
  3445,'2ROTONDA    ', 132.0000,1,   4,   7,   1,1.02779, -37.6362,1.10000,0.90000,1.10000,0.90000
  3448,'1SISIDRO    ', 132.0000,1,   4,   7,   1,1.01921, -39.6538,1.10000,0.90000,1.10000,0.90000
  3450,'1JUST132    ', 132.0000,1,   4,   7,   1,1.01773, -23.8245,1.10000,0.90000,1.10000,0.90000
  3451,'1ORO VERDE  ', 132.0000,1,   4,   7,   1,1.01400, -22.7659,1.10000,0.90000,1.10000,0.90000
  3452,'S.MIGUEL    ', 132.0000,1,   4,   7,   1,1.01645, -32.1830,1.10000,0.90000,1.10000,0.90000
  3453,'MUNIZ       ', 132.0000,1,   4,   7,   1,1.01487, -32.4125,1.10000,0.90000,1.10000,0.90000
  3454,'STA.RITA    ', 132.0000,1,   4,   8,   1,1.02652, -37.8459,1.10000,0.90000,1.10000,0.90000
  3455,'2ORO VERDE  ', 132.0000,1,   4,   7,   1,1.01304, -22.7589,1.10000,0.90000,1.10000,0.90000
  3456,'1SA.ROSA    ', 132.0000,1,   4,   7,   1,1.01921, -23.7040,1.10000,0.90000,1.10000,0.90000
  3457,'JC. PAZ     ', 132.0000,1,   4,   7,   1,1.02018, -31.6345,1.10000,0.90000,1.10000,0.90000
  3459,'2SA.ROSA    ', 132.0000,1,   4,   7,   1,1.01881, -23.7412,1.10000,0.90000,1.10000,0.90000
  3466,'1TALAR      ', 132.0000,1,   4,   7,   1,1.01445, -37.6591,1.10000,0.90000,1.10000,0.90000
  3467,'2TALAR      ', 132.0000,1,   4,   7,   1,1.01445, -37.6591,1.10000,0.90000,1.10000,0.90000
  3468,'1TAPIALE    ', 132.0000,1,   4,   7,   1,1.01249, -23.9989,1.10000,0.90000,1.10000,0.90000
  3469,'1PI-TALA    ', 132.0000,1,   4,   7,   1,1.01340, -37.7813,1.10000,0.90000,1.10000,0.90000
  3470,'2TAPIALE    ', 132.0000,1,   4,   7,   1,1.01189, -24.0306,1.10000,0.90000,1.10000,0.90000
  3471,'1SFERNAN    ', 132.0000,1,   4,   7,   1,1.00827, -38.3784,1.10000,0.90000,1.10000,0.90000
  3472,'1PITAPIA    ', 132.0000,1,   4,   7,   1,1.01496, -23.7764,1.10000,0.90000,1.10000,0.90000
  3473,'1PI-VICTORIA', 132.0000,1,   4,   7,   1,1.00730, -38.4860,1.10000,0.90000,1.10000,0.90000
  3474,'2PITAPIA    ', 132.0000,1,   4,   7,   1,1.01437, -23.8077,1.10000,0.90000,1.10000,0.90000
  3475,'2DERQUI     ', 132.0000,1,   4,   7,   1,1.01434, -32.5762,1.10000,0.90000,1.10000,0.90000
  3478,'1TIGRE      ', 132.0000,1,   4,   7,   1,1.00519, -38.7859,1.10000,0.90000,1.10000,0.90000
  3479,'1NDELTA     ', 132.0000,1,   4,   7,   1,1.00471, -38.9571,1.10000,0.90000,1.10000,0.90000
  3481,'2JUST132    ', 132.0000,1,   4,   7,   1,1.01773, -23.8245,1.10000,0.90000,1.10000,0.90000
  3483,'LUZURIAGA2  ', 132.0000,1,   4,   7,   1,1.01742, -23.8484,1.10000,0.90000,1.10000,0.90000
  3485,'2MANZONE    ', 132.0000,1,   4,   7,   1,1.01348, -27.4074,1.10000,0.90000,1.10000,0.90000
  3487,'2PARQUE     ', 132.0000,1,   4,   7,   1,1.00750, -27.8302,1.10000,0.90000,1.10000,0.90000
  3489,'PACHECO     ', 132.0000,1,   4,   7,   1,1.00000,   0.0000,1.10000,0.90000,1.10000,0.90000
  3490,'1V.LOPEZ    ', 132.0000,1,   4,   7,   1,1.02454, -38.7278,1.10000,0.90000,1.10000,0.90000
  3491,'PINAZO      ', 132.0000,1,   4,   7,   1,1.01659, -31.9892,1.10000,0.90000,1.10000,0.90000
  3492,'1VICTORI    ', 132.0000,1,   4,   7,   1,1.01811, -39.7206,1.10000,0.90000,1.10000,0.90000
  3493,'2JC. PAZ    ', 132.0000,1,   4,   7,   1,1.01839, -35.1410,1.10000,0.90000,1.10000,0.90000
  3494,'1VADELIN    ', 132.0000,1,   4,   7,   1,1.00679, -20.6330,1.10000,0.90000,1.10000,0.90000
  3495,'ACOSTA      ', 132.0000,1,   4,   7,   1,1.00000,   0.0000,1.10000,0.90000,1.10000,0.90000
  3496,'2VADELIN    ', 132.0000,1,   4,   7,   1,1.00688, -20.6167,1.10000,0.90000,1.10000,0.90000
  3497,'2ACOSTA     ', 132.0000,1,   4,   7,   1,1.00000,   0.0000,1.10000,0.90000,1.10000,0.90000
  3498,'CRESP.BA    ', 132.0000,1,   4,   8,   1,1.02596, -19.5300,1.10000,0.90000,1.10000,0.90000
  3499,'CRESPO2     ', 132.0000,1,   4,   8,   1,1.02359, -19.7189,1.10000,0.90000,1.10000,0.90000
  3512,'AGROSUR     ',  27.5000,1,   4,   7,   1,1.00068, -40.4649,1.10000,0.90000,1.10000,0.90000
  3522,'NPUESUR     ',  27.5000,1,   4,   7,   1,1.00000,   0.0000,1.10000,0.90000,1.10000,0.90000
  3523,'NPUENOR     ',  27.5000,1,   4,   7,   1,1.02799, -17.1537,1.10000,0.90000,1.10000,0.90000
  3527,'PNUE.S1     ',  27.5000,1,   4,   7,   1,1.00000,   0.0000,1.10000,0.90000,1.10000,0.90000
  3528,'ARASANJUAN  ', 132.0000,1,   4,   7,   1,1.01931, -34.9927,1.10000,0.90000,1.10000,0.90000
  3529,'2ARASANJUAN ', 132.0000,1,   4,   7,   1,1.01920, -34.9789,1.10000,0.90000,1.10000,0.90000
  3542,'1GARIN      ', 132.0000,1,   4,   7,   1,1.00648, -33.5778,1.10000,0.90000,1.10000,0.90000
  3543,'2GARIN      ', 132.0000,1,   4,   7,   1,1.00791, -33.5980,1.10000,0.90000,1.10000,0.90000
  3566,'MATH33 2    ',  33.0000,1,   4,   7,   1,1.00000,   0.0000,1.10000,0.90000,1.10000,0.90000
  3571,'1SUAREZ     ',  13.2000,1,   4,   7,   1,1.02937, -30.2876,1.10000,0.90000,1.10000,0.90000
  3572,'2SUAREZ     ',  13.2000,1,   4,   7,   1,1.02629, -29.7941,1.10000,0.90000,1.10000,0.90000
  3573,'CTSM3       ',  13.2000,1,   4,  26,   1,1.02882, -15.1961,1.10000,0.90000,1.10000,0.90000
  3574,'CTSM3_G1    ',   0.4000,2,   4,  26,   1,1.02900, -12.9405,1.10000,0.90000,1.10000,0.90000
  3575,'CTSM3_G2    ',   0.4000,2,   4,  26,   1,1.02900, -12.9405,1.10000,0.90000,1.10000,0.90000
  3576,'CTSM3_G3    ',   0.4000,2,   4,  26,   1,1.02900, -12.9405,1.10000,0.90000,1.10000,0.90000
  3577,'CTSM3_G4    ',   0.4000,2,   4,  26,   1,1.02900, -12.9405,1.10000,0.90000,1.10000,0.90000
  3578,'CTSM3_G5    ',   0.4000,2,   4,  26,   1,1.00000,   0.0000,1.10000,0.90000,1.10000,0.90000
  3579,'CTSM3_R     ',  13.2000,1,   4,  26,   1,1.05773, -27.7768,1.10000,0.90000,1.10000,0.90000
  3665,'5NPUE15     ',  27.5000,2,   4,  26,   1,1.00000,   0.0000,1.10000,0.90000,1.10000,0.90000
  3666,'NPUE 6      ',  18.0000,2,   4,  26,   1,1.03812, -34.1329,1.10000,0.90000,1.10000,0.90000
  3667,'NPUETG11    ',  15.7500,2,   4,  26,   1,1.03899, -31.4486,1.10000,0.90000,1.10000,0.90000
  3668,'NPUETG12    ',  15.7500,2,   4,  26,   1,1.08235, -20.1228,1.10000,0.90000,1.10000,0.90000
  3669,'NPUETV10    ',  15.7500,2,   4,  26,   1,1.04392, -32.0439,1.10000,0.90000,1.10000,0.90000
  3671,'MATHGEN2    ',  11.5000,2,   4,   7,   1,1.00000,   0.0000,1.10000,0.90000,1.10000,0.90000
  3672,'MATHGEN     ',  11.5000,2,   4,   7,   1,1.00000,   0.0000,1.10000,0.90000,1.10000,0.90000
  3677,'7PNUE15     ',  15.0000,2,   4,  26,   1,1.00000,   0.0000,1.10000,0.90000,1.10000,0.90000
  3678,'8PNUE15     ',  15.0000,2,   4,  26,   1,1.02900, -13.4500,1.10000,0.90000,1.10000,0.90000
  3679,'PNUE 9      ',  15.8000,2,   4,  26,   1,1.03297, -32.7491,1.10000,0.90000,1.10000,0.90000
  3690,'4ROTONDA    ',  13.2000,1,   4,   7,   1,1.03337, -45.2263,1.10000,0.90000,1.10000,0.90000
  3691,'3ROTONDA    ',  13.2000,1,   4,   7,   1,1.03314, -46.2356,1.10000,0.90000,1.10000,0.90000
  3696,'MATHEU ARAU ', 220.0000,1,   4,  26,   1,1.00000,   0.0000,1.10000,0.90000,1.10000,0.90000
  3697,'PAMPA_PILAR ', 132.0000,1,   4,  26,   1,1.01267, -27.5453,1.10000,0.90000,1.10000,0.90000
  3700,'INT SANJUSTO', 132.0000,1,   4,   7,   1,1.01773, -23.8245,1.10000,0.90000,1.10000,0.90000
  3701,'INTAGRO     ', 132.0000,1,   4,   7,   1,1.02697, -37.8181,1.10000,0.90000,1.10000,0.90000
  3702,'INTMELO     ', 132.0000,1,   4,   7,   1,1.02764, -37.9425,1.10000,0.90000,1.10000,0.90000
  3703,'INTGUEM     ', 132.0000,1,   4,   7,   1,1.02679, -37.9792,1.10000,0.90000,1.10000,0.90000
  3704,'PI NDELT    ', 132.0000,1,   4,   7,   1,1.00572, -38.7332,1.10000,0.90000,1.10000,0.90000
  3705,'PI-PARQUE   ', 132.0000,1,   4,   7,   1,1.01062, -27.6553,1.10000,0.90000,1.10000,0.90000
  3706,'PI-2PARQUE  ', 132.0000,1,   4,   7,   1,1.01062, -27.6553,1.10000,0.90000,1.10000,0.90000
  3707,'INRMEJIA    ', 132.0000,1,   4,   7,   1,1.01687, -23.8856,1.10000,0.90000,1.10000,0.90000
  3708,'1INTMORO    ', 132.0000,1,   4,   7,   1,1.02239, -34.4500,1.10000,0.90000,1.10000,0.90000
  3709,'2INTMORO    ', 132.0000,1,   4,   7,   1,1.02239, -34.4500,1.10000,0.90000,1.10000,0.90000
  3710,'PI-SANALBERT', 132.0000,1,   4,   7,   1,0.99773, -24.6129,1.10000,0.90000,1.10000,0.90000
  3713,'PI-TAPMA    ', 132.0000,1,   4,   7,   1,1.00000,   0.0000,1.10000,0.90000,1.10000,0.90000
  3717,'1PIGARIN    ', 132.0000,1,   4,   7,   1,1.00656, -33.5489,1.10000,0.90000,1.10000,0.90000
  3718,'2PIGARIN    ', 132.0000,1,   4,   7,   1,1.00799, -33.5688,1.10000,0.90000,1.10000,0.90000
  3719,'PI-PILAR13  ', 132.0000,1,   4,   7,   1,1.01207, -32.8558,1.10000,0.90000,1.10000,0.90000
  3720,'PI-2PILAR13 ', 132.0000,1,   4,   7,   1,1.01207, -32.8558,1.10000,0.90000,1.10000,0.90000
  3721,'PI.CRUCE1   ', 132.0000,1,   4,   7,   1,1.00508, -27.2014,1.10000,0.90000,1.10000,0.90000
  3722,'PI.CRUCE2   ', 132.0000,1,   4,   7,   1,1.00508, -27.2014,1.10000,0.90000,1.10000,0.90000
  3730,'PNUE.NEU    ',   1.0000,1,   4,   7,   1,0.99773, -30.8941,1.10000,0.90000,1.10000,0.90000
  3760,'PI-PILAR    ', 132.0000,1,   4,   7,   1,1.01078, -27.6405,1.10000,0.90000,1.10000,0.90000
  3780,'1PI-RECO    ', 132.0000,1,   4,   7,   1,1.00022, -24.8094,1.10000,0.90000,1.10000,0.90000
  3782,'2PI-RECO    ', 132.0000,1,   4,   7,   1,1.00022, -24.8303,1.10000,0.90000,1.10000,0.90000
  3783,'PI-PASO REY ', 132.0000,1,   4,   7,   1,1.00030, -24.7802,1.10000,0.90000,1.10000,0.90000
  3807,'PNU.TER1    ',  13.2000,1,   4,   7,   1,1.00000,   0.0000,1.10000,0.90000,1.10000,0.90000
  3827,'OSM.TER1    ', 132.0000,1,   4,   1,  10,1.00000,   0.0000,1.10000,0.90000,1.10000,0.90000
  3830,'1PI-PONT    ', 132.0000,1,   4,   7,   1,1.00632, -23.2320,1.10000,0.90000,1.10000,0.90000
  3831,'2PI-PONT    ', 132.0000,1,   4,   7,   1,1.00599, -23.1450,1.10000,0.90000,1.10000,0.90000
  3833,'OSM.TER2    ', 132.0000,1,   4,   1,  10,1.00000,   0.0000,1.10000,0.90000,1.10000,0.90000
  3834,'OSM.TER3    ', 132.0000,1,   4,   1,  10,1.00000,   0.0000,1.10000,0.90000,1.10000,0.90000
  3835,'PI-PINO     ', 132.0000,1,   4,   7,   1,1.01889, -21.7753,1.10000,0.90000,1.10000,0.90000
  3836,'2PI-PINO    ', 132.0000,1,   4,   7,   1,1.01927, -21.8964,1.10000,0.90000,1.10000,0.90000
  3837,'PI-EL PINO1 ', 132.0000,1,   4,   7,   1,1.01436, -22.7119,1.10000,0.90000,1.10000,0.90000
  3838,'PI-EL PINO2 ', 132.0000,1,   4,   7,   1,1.01340, -22.7048,1.10000,0.90000,1.10000,0.90000
  3839,'1PI-SFER    ', 132.0000,1,   4,   7,   1,1.00849, -38.3533,1.10000,0.90000,1.10000,0.90000
  3841,'1PI-REJA    ', 132.0000,1,   4,   7,   1,1.00174, -24.1191,1.10000,0.90000,1.10000,0.90000
  3843,'SEC-REJA    ', 132.0000,1,   4,   7,   1,0.99948, -25.0677,1.10000,0.90000,1.10000,0.90000
  3844,'SEC-REJ2    ', 132.0000,1,   4,   7,   1,0.99942, -25.0980,1.10000,0.90000,1.10000,0.90000
  3847,'1PI-MORENO  ', 132.0000,1,   4,   7,   1,1.00000, -25.1996,1.10000,0.90000,1.10000,0.90000
  3848,'2PI-MORENO  ', 132.0000,1,   4,   7,   1,0.99987, -25.2365,1.10000,0.90000,1.10000,0.90000
  3850,'1SECC-GAONA ', 132.0000,1,   4,   7,   1,0.99833, -25.2967,1.10000,0.90000,1.10000,0.90000
  3851,'2SECC-GAONA ', 132.0000,1,   4,   7,   1,0.99831, -25.3097,1.10000,0.90000,1.10000,0.90000
  3852,'2PI-REJA    ', 132.0000,1,   4,   7,   1,1.00168, -24.1319,1.10000,0.90000,1.10000,0.90000
  3922,'1CASAFIC    ',   1.0000,1,   4,   7,   1,1.00694, -17.0089,1.10000,0.90000,1.10000,0.90000
  3923,'2CASAFIC    ',   1.0000,1,   4,   7,   1,0.99333, -18.4529,1.10000,0.90000,1.10000,0.90000
  3926,'1MALAFIC    ',   1.0000,1,   4,   7,   1,0.99152, -31.2111,1.10000,0.90000,1.10000,0.90000
  3927,'2MALAFIC    ',   1.0000,1,   4,   7,   1,0.99152, -31.2103,1.10000,0.90000,1.10000,0.90000
  3928,'1MATHFIC    ',   1.0000,1,   4,   7,   1,0.99072, -28.1970,1.10000,0.90000,1.10000,0.90000
  3929,'2MATHFIC    ',   1.0000,1,   4,   7,   1,0.99073, -28.1967,1.10000,0.90000,1.10000,0.90000
  3930,'FICMORO1    ',   1.0000,1,   4,   7,   1,0.99618, -28.9507,1.10000,0.90000,1.10000,0.90000
  3931,'FICMORO2    ',   1.0000,1,   4,   7,   1,0.99618, -28.9507,1.10000,0.90000,1.10000,0.90000
  3932,'FICMORO3    ',   1.0000,1,   4,   7,   1,0.99575, -28.9426,1.10000,0.90000,1.10000,0.90000
  3933,'NPUEFIC2    ',   1.0000,1,   4,   7,   1,1.02799, -17.1537,1.10000,0.90000,1.10000,0.90000
  3934,'NPUEFIC1    ',   1.0000,1,   4,   7,   1,1.00000,   0.0000,1.10000,0.90000,1.10000,0.90000
  3937,'PNU.NEU1    ',   1.0000,1,   4,   7,   1,1.00000,   0.0000,1.10000,0.90000,1.10000,0.90000
  3938,'3FICAGRO    ',   1.0000,1,   4,   7,   1,1.01356, -39.1243,1.10000,0.90000,1.10000,0.90000
  3939,'2FICAGRO    ',   1.0000,1,   4,   7,   1,1.01356, -39.1243,1.10000,0.90000,1.10000,0.90000
  3945,'1FICTALA    ',   1.0000,1,   4,   7,   1,0.97917, -30.9955,1.10000,0.90000,1.10000,0.90000
  3946,'2FICTALA    ',   1.0000,1,   4,   7,   1,0.97909, -31.0272,1.10000,0.90000,1.10000,0.90000
  3949,'1ZAPAFIC    ',   1.0000,1,   4,   7,   1,1.00406, -16.8979,1.10000,0.90000,1.10000,0.90000
  3950,'2ZAPAFIC    ',   1.0000,1,   4,   7,   1,1.00679, -16.2852,1.10000,0.90000,1.10000,0.90000
  3952,'6NPUEFIC    ',   1.0000,1,   4,  26,   1,1.02610, -44.8721,1.10000,0.90000,1.10000,0.90000